Version 4
SHEET 1 4556 2020
WIRE 592 -128 320 -128
WIRE 592 -80 592 -128
WIRE -368 48 -464 48
WIRE -224 48 -288 48
WIRE -32 48 -144 48
WIRE 320 48 320 -128
WIRE 320 48 -32 48
WIRE 592 48 592 0
WIRE 832 48 592 48
WIRE 1040 48 912 48
WIRE 1248 48 1040 48
WIRE -464 96 -464 48
WIRE -32 112 -32 48
WIRE 592 112 592 48
WIRE 1040 112 1040 48
WIRE -32 240 -32 176
WIRE -464 288 -464 176
WIRE 592 304 592 192
WIRE 1040 304 1040 176
WIRE 1136 480 816 480
WIRE 1504 480 1136 480
WIRE 320 528 320 48
WIRE 480 528 320 528
WIRE 816 528 816 480
WIRE 816 528 480 528
WIRE 1360 544 1056 544
WIRE 1056 592 1056 544
WIRE 480 624 480 528
WIRE 1360 640 1360 608
WIRE 816 656 816 528
WIRE 848 656 816 656
WIRE 864 656 848 656
WIRE 1280 656 1248 656
WIRE 1296 656 1280 656
WIRE 1296 704 1296 656
WIRE 1504 704 1504 480
WIRE 1504 704 1296 704
WIRE 2880 704 2800 704
WIRE 3056 704 2880 704
WIRE 3136 704 3056 704
WIRE 2144 720 2048 720
WIRE 2448 720 2144 720
WIRE 2512 720 2448 720
WIRE 480 736 480 688
WIRE 864 752 752 752
WIRE 1280 752 1248 752
WIRE 1296 752 1296 704
WIRE 1296 752 1280 752
WIRE 3056 752 3056 704
WIRE 2880 768 2880 704
WIRE 2880 768 2800 768
WIRE 2144 784 2144 720
WIRE 752 800 752 752
WIRE 2448 816 2448 720
WIRE 2512 816 2448 816
WIRE 2880 832 2800 832
WIRE 3056 880 3056 816
WIRE 2144 912 2144 848
WIRE 1744 944 1248 944
WIRE 2656 992 2656 880
WIRE 1360 1040 1248 1040
WIRE 1360 1056 1360 1040
WIRE 1360 1136 1360 1120
WIRE 1360 1136 1248 1136
WIRE 1536 1136 1360 1136
WIRE 1696 1136 1616 1136
WIRE 1744 1136 1744 944
WIRE 1744 1136 1696 1136
WIRE 1840 1136 1744 1136
WIRE 2048 1136 2048 720
WIRE 2048 1136 1840 1136
WIRE 2096 1136 2048 1136
WIRE 1840 1184 1840 1136
WIRE 1424 1232 1248 1232
WIRE 1552 1232 1424 1232
WIRE 1696 1232 1696 1136
WIRE 1696 1232 1632 1232
WIRE 1424 1264 1424 1232
WIRE 1840 1280 1840 1248
WIRE 1424 1376 1424 1344
WIRE 976 1664 976 1584
WIRE 1056 1664 976 1664
WIRE 1136 1664 1136 1584
WIRE 1136 1664 1056 1664
WIRE 1056 1728 1056 1664
FLAG 592 304 0
FLAG 1040 304 0
FLAG 1360 640 0
FLAG 480 736 0
FLAG 1056 1728 0
FLAG 752 800 0
FLAG 1840 1280 0
FLAG 1424 1376 0
FLAG 1136 480 VIN
FLAG 1280 656 VIN
FLAG 1280 752 VIN
FLAG 848 656 VIN
FLAG 1248 48 Output_MC
FLAG 2656 992 0
FLAG 2144 912 0
FLAG 3136 704 Output_3V3
FLAG 3056 880 0
FLAG 2096 1136 Output_5V
FLAG -464 288 0
FLAG -32 240 0
SYMBOL res 576 -96 R0
SYMATTR InstName R1
SYMATTR Value 47.5k
SYMATTR SpiceLine tol=1 pwr=0.1
SYMBOL res 576 96 R0
WINDOW 0 67 40 Right 2
SYMATTR InstName R2
SYMATTR Value 4.99k
SYMATTR SpiceLine tol=1 pwr=0.1
SYMBOL cap 1024 112 R0
SYMATTR InstName C1
SYMATTR Value 100nF
SYMBOL res 928 32 R90
WINDOW 0 0 56 VBottom 2
WINDOW 3 32 56 VTop 2
SYMATTR InstName R3
SYMATTR Value 1k
SYMBOL PowerProducts\\LTC3633A 1056 1088 R0
SYMATTR InstName U1
SYMBOL cap 1344 544 R0
SYMATTR InstName C4
SYMATTR Value 2.2µF
SYMBOL cap 1344 1056 R0
SYMATTR InstName C5
SYMATTR Value 0.1µF
SYMBOL ind 1520 1152 R270
WINDOW 0 32 56 VTop 2
WINDOW 3 5 56 VBottom 2
SYMATTR InstName L1
SYMATTR Value 1.5µH
SYMBOL cap 1824 1184 R0
SYMATTR InstName C6
SYMATTR Value 22µF
SYMBOL res 1648 1216 R90
WINDOW 0 0 56 VBottom 2
WINDOW 3 32 56 VTop 2
SYMATTR InstName R4
SYMATTR Value 73.2k
SYMBOL res 1440 1360 R180
WINDOW 0 36 76 Left 2
WINDOW 3 36 40 Left 2
SYMATTR InstName R5
SYMATTR Value 10k
SYMBOL PowerProducts\\LT1763-3.3 2656 768 R0
SYMATTR InstName U2
SYMBOL cap 2864 768 R0
SYMATTR InstName C7
SYMATTR Value 0.01µF
SYMBOL cap 2128 784 R0
SYMATTR InstName C8
SYMATTR Value 1µF
SYMBOL cap 3040 752 R0
SYMATTR InstName C9
SYMATTR Value 10µF
SYMBOL ind -240 64 R270
WINDOW 0 32 56 VTop 2
WINDOW 3 5 56 VBottom 2
SYMATTR InstName L3
SYMATTR Value {Lw}
SYMBOL voltage -464 80 R0
WINDOW 123 0 0 Left 0
WINDOW 39 0 0 Left 0
SYMATTR InstName V2
SYMATTR Value PULSE(0 16.8 0 1u 1u 10m 20m)
SYMBOL cap 464 624 R0
SYMATTR InstName C2
SYMATTR Value 10µF
SYMBOL cap -48 112 R0
SYMATTR Value 1000µ
SYMATTR InstName C3
SYMATTR SpiceLine V=25 Rser=0.11 Lser=0
SYMBOL res -272 32 R90
WINDOW 0 0 56 VBottom 2
WINDOW 3 32 56 VTop 2
SYMATTR InstName R6
SYMATTR Value 5m
TEXT 736 -120 Left 2 ;Monitoring Circuit
TEXT 1832 664 Left 2 !.tran 10m
TEXT 208 1072 Left 2 ;Buck 5V (LTC3633A - Analog Devices INC)
TEXT 2368 528 Left 2 ;LDO 3V3 (LT1763-3.3 - Analog Device INC)
TEXT -1064 -104 Left 2 ;5m resistor to simulate the resistance \nof battery (internal), XT90 connector, and 12 AWG (30cm)
TEXT -424 472 Left 2 !.measure TRAN maxV MAX V(VIN)\n \n.step param Lw list 50n 150n 300n 600n 900n 1.2u 1.5u
